tests/data/power_flow/pandapower/components/pp-sym-shunt/pgm_sym_output.json
{
  "line": [
    {
      "id": 3,
      "energized": 1,
      "loading": 0.0023903058673021313,
      "p_from": 1104.1606613089798,
      "q_from": -43457.54029613261,
      "i_from": 2.390305867302131,
      "s_from": 43471.56518180559,
      "p_to": -1102.6085536863836,
      "q_to": 8820.868428674325,
      "i_to": 0.4887724623405393,
      "s_to": 8889.514354487865
    }
  ],
  "node": [
    {
      "id": 1,
      "energized": 1,
      "u_pu": 1.0000043131813192,
      "u": 10500.045288403851,
      "u_angle": -5.422844411379219e-07
    },
    {
      "id": 2,
      "energized": 1,
      "u_pu": 1.0000492294418633,
      "u": 10500.516909139564,
      "u_angle": -6.181494465270003e-05
    }
  ],
  "shunt": [
    {
      "id": 6,
      "energized": 1,
      "p": 1102.6085535912594,
      "q": -8820.868428730075,
      "i": 0.4887724623429321,
      "s": 8889.514354531388,
      "pf": 0.12403473458920845
    },
    {
      "id": 7,
      "energized": 1,
      "p": -0.0,
      "q": -0.0,
      "i": 0.0,
      "s": 0.0,
      "pf": 0.0
    }
  ],
  "source": [
    {
      "id": 4,
      "energized": 1,
      "p": 1104.1606613811227,
      "q": -43457.54029692627,
      "i": 2.390305867345857,
      "s": 43471.565182600825,
      "pf": 0.025399606771532923
    }
  ]
}